power-flow-agent/results/ieee57/2026-09-29/gpt-5.6-sol/llm_only_cot/traces/01_case57-ambiguous-003-s0.transcript.txt
==============================================================================
TRANSCRIPT  llm_only:cot  |  openrouter:openai/gpt-5.6-sol  |  case57  |  case57-ambiguous-003-s0  run 0
==============================================================================
date: 2026-09-29   seed: 0   difficulty: ambiguous   tool variant: load_split

[system]   (hash be09b0a3b7d2, from methods/llm_only_cot/method.json prompt_files)
You are a power system power-flow analysis assistant. You complete power system analysis tasks from natural-language requests. In this setting you have no tools: the user message gives you the full network data tables, and you must work out the requested AC power-flow results yourself from that data.

## Rules
- Never fabricate a numerical result. Every voltage, power, loss, or loading value you report must come from a solver output (tool-using methods) or from your own explicit computation on the data given (methods without tools).
- If the request is ambiguous, state the interpretation you are using in `summary`.
- Bus and line identifiers in the request are MATPOWER 1-based ids; use them as given, unless the request itself states a different indexing convention for that identifier (e.g. "(0-based)"), in which case convert it to the MATPOWER 1-based id.
- If you cannot complete the request, say so: set `converged` to false, leave the result arrays empty, and explain why in `cannot_answer`. Do not guess.
- Always reply in English, and only with the JSON object described under Output.

Reasoning mode: you MAY write a short step-by-step reasoning in plain text before the answer. The final JSON object must be the LAST thing in the response, inside a single ```json fenced block, and it must be the only JSON object in the response. Do not use curly braces in the reasoning text.

[user]   (complete message, stored at run time)
System base: 100 MVA. Every per-unit quantity below (r_pu, x_pu, b_pu) is defined on this base. Line and transformer impedances (r_pu, x_pu, b_pu) are already in per unit on this base, not ohms per km; do not convert them further. Branch thermal ratings are the rating_mva column (MVA). loading_percent of a branch is 100 * sqrt(p_from_mw^2 + q_from_mvar^2) / rating_mva on its from side (hv side for a transformer); a branch is overloaded above 100 %.

You are a power systems expert. Based on the following IEEE case57 test system data, calculate the AC power flow results.

## System Data (from pandapower network tables)

### Node Data (Bus Table: net.bus)

    name type zone  in_service
0      1    b  1.0        True
1      2    b  1.0        True
2      3    b  1.0        True
3      4    b  1.0        True
4      5    b  1.0        True
5      6    b  1.0        True
6      7    b  1.0        True
7      8    b  1.0        True
8      9    b  1.0        True
9     10    b  1.0        True
10    11    b  1.0        True
11    12    b  1.0        True
12    13    b  1.0        True
13    14    b  1.0        True
14    15    b  1.0        True
15    16    b  1.0        True
16    17    b  1.0        True
17    18    b  1.0        True
18    19    b  1.0        True
19    20    b  1.0        True
20    21    b  1.0        True
21    22    b  1.0        True
22    23    b  1.0        True
23    24    b  1.0        True
24    25    b  1.0        True
25    26    b  1.0        True
26    27    b  1.0        True
27    28    b  1.0        True
28    29    b  1.0        True
29    30    b  1.0        True
30    31    b  1.0        True
31    32    b  1.0        True
32    33    b  1.0        True
33    34    b  1.0        True
34    35    b  1.0        True
35    36    b  1.0        True
36    37    b  1.0        True
37    38    b  1.0        True
38    39    b  1.0        True
39    40    b  1.0        True
40    41    b  1.0        True
41    42    b  1.0        True
42    43    b  1.0        True
43    44    b  1.0        True
44    45    b  1.0        True
45    46    b  1.0        True
46    47    b  1.0        True
47    48    b  1.0        True
48    49    b  1.0        True
49    50    b  1.0        True
50    51    b  1.0        True
51    52    b  1.0        True
52    53    b  1.0        True
53    54    b  1.0        True
54    55    b  1.0        True
55    56    b  1.0        True
56    57    b  1.0        True

### Load Data (Load Table: net.load)

    bus        p_mw     q_mvar  in_service
0     1   58.633875  18.123198        True
1     2    3.252226  95.398616        True
2     3   37.354276  19.132678        True
3     5   12.373718   3.807298        True
4     6   79.459762   2.118927        True
5     8  142.567869  20.909954        True
6     9  113.357481  24.357806        True
7    10    5.494966   2.197986        True
8    12  363.969067  23.170445        True
9    13   18.221235   2.328269        True
10   14   10.019872   5.057650        True
11   15   21.313865   4.844060        True
12   16   42.675667   2.977372        True
13   17   44.804951   8.534276        True
14   18   27.732220   9.991756        True
15   19    3.377269   0.614049        True
16   20    2.221966   0.966072        True
17   23    6.108774   2.036258        True
18   25    6.080785   3.088652        True
19   27    9.621831   0.517303        True
20   28    4.614681   2.307340        True
21   29   16.115003   2.464647        True
22   30    3.316767   1.658384        True
23   31    6.077321   3.038661        True
24   32    1.733796   0.866898        True
25   33    3.805874   1.902937        True
26   35    6.026351   3.013175        True
27   38   13.692691   6.846346        True
28   41    6.566079   3.126704        True
29   42    7.382321   4.574959        True
30   43    1.905496   0.952748        True
31   44   11.390833   1.708625        True
32   47   28.513718  11.136671        True
33   49   19.366871   9.145467        True
34   50   22.202572  11.101286        True
35   51   17.283023   5.088890        True
36   52    5.329486   2.392830        True
37   53   20.784212  10.392106        True
38   54    4.501641   1.537146        True
39   55    7.012338   3.506169        True
40   56    8.179816   2.367841        True
41   57    6.496793   1.939341        True

### Generator Data (Generator Table: net.gen)

   bus        p_mw  vm_pu  min_p_mw  max_p_mw  min_q_mvar  max_q_mvar  in_service
0    2    0.000000  1.010       0.0     100.0       -17.0        50.0        True
1    3   43.236864  0.985       0.0     140.0       -10.0        60.0        True
2    6    0.000000  0.980       0.0     100.0        -8.0        25.0        True
3    8  431.058822  1.005       0.0     550.0      -140.0       200.0        True
4    9    0.000000  0.980       0.0     100.0        -3.0         9.0        True
5   12  307.109868  1.015       0.0     410.0      -150.0       155.0        True

### Balanced Node/External Grid (External Grid Table: net.ext_grid)

   bus  vm_pu  va_degree  in_service
0    1   1.04        0.0        True

### Line Data (Line Table: net.line)

    from_bus  to_bus    r_pu    x_pu    b_pu  rating_mva  parallel  in_service
0          1       2  0.0083  0.0280  0.1290      159.26         1        True
1          2       3  0.0298  0.0850  0.0818      123.78         1        True
2          3       4  0.0112  0.0366  0.0380       78.08         1        True
3          4       5  0.0625  0.1320  0.0258       18.82         1        True
4          4       6  0.0430  0.1480  0.0348       19.91         1        True
5          6       7  0.0200  0.1020  0.0276       20.77         1        True
6          6       8  0.0339  0.1730  0.0470       53.98         1        True
7          8       9  0.0099  0.0505  0.0548      221.27         1        True
8          9      10  0.0369  0.1679  0.0440       24.03         1        True
9          9      11  0.0258  0.0848  0.0218       17.57         1        True
10         9      12  0.0648  0.2950  0.0772       19.94         1        True
11         9      13  0.0481  0.1580  0.0406       11.06         1        True
12        13      14  0.0132  0.0434  0.0110       29.66         1        True
13        13      15  0.0269  0.0869  0.0230       61.58         1        True
14         1      15  0.0178  0.0910  0.0988      192.19         1        True
15         1      16  0.0454  0.2060  0.0546       99.49         1        True
16         1      17  0.0238  0.1080  0.0286      117.20         1        True
17         3      15  0.0162  0.0530  0.0544       45.29         1        True
18         5       6  0.0302  0.0641  0.0124       11.06         1        True
19         7       8  0.0139  0.0712  0.0194      102.11         1        True
20        10      12  0.0277  0.1262  0.0328       37.94         1        True
21        11      13  0.0223  0.0732  0.0188       21.71         1        True
22        12      13  0.0178  0.0580  0.0604       67.16         1        True
23        12      16  0.0180  0.0813  0.0216       43.59         1        True
24        12      17  0.0397  0.1790  0.0476       62.06         1        True
25        14      15  0.0171  0.0547  0.0148       81.04         1        True
26        18      19  0.4610  0.6850  0.0000       11.06         1        True
27        19      20  0.2830  0.4340  0.0000       11.06         1        True
28        21      22  0.0736  0.1170  0.0000       11.06         1        True
29        22      23  0.0099  0.0152  0.0000       13.07         1        True
30        23      24  0.1660  0.2560  0.0084       11.06         1        True
31        26      27  0.1650  0.2540  0.0000       14.82         1        True
32        27      28  0.0618  0.0954  0.0000       26.68         1        True
33        28      29  0.0418  0.0587  0.0000       33.59         1        True
34        25      30  0.1350  0.2020  0.0000       11.76         1        True
35        30      31  0.3260  0.4970  0.0000       11.06         1        True
36        31      32  0.5070  0.7550  0.0000       11.06         1        True
37        32      33  0.0392  0.0360  0.0000       11.06         1        True
38        34      35  0.0520  0.0780  0.0032       11.06         1        True
39        35      36  0.0430  0.0537  0.0016       18.69         1        True
40        36      37  0.0290  0.0366  0.0000       20.45         1        True
41        37      38  0.0651  0.1009  0.0020       24.24         1        True
42        37      39  0.0239  0.0379  0.0000       11.06         1        True
43        36      40  0.0300  0.0466  0.0000       11.06         1        True
44        22      38  0.0192  0.0295  0.0000       13.25         1        True
45        41      42  0.2070  0.3520  0.0000       15.60         1        True
46        41      43  0.0000  0.4120  0.0000       19.03         1        True
47        38      44  0.0289  0.0585  0.0020       39.61         1        True
48        46      47  0.0230  0.0680  0.0032       52.05         1        True
49        47      48  0.0182  0.0233  0.0000       12.74         1        True
50        48      49  0.0834  0.1290  0.0048       11.06         1        True
51        49      50  0.0801  0.1280  0.0000       11.06         1        True
52        50      51  0.1386  0.2200  0.0000       22.08         1        True
53        29      52  0.1442  0.1870  0.0000       26.98         1        True
54        52      53  0.0762  0.0984  0.0000       18.99         1        True
55        53      54  0.1878  0.2320  0.0000       11.06         1        True
56        54      55  0.1732  0.2265  0.0000       12.75         1        True
57        44      45  0.0624  0.1242  0.0040       54.97         1        True
58        56      41  0.5530  0.5490  0.0000       11.06         1        True
59        56      42  0.2125  0.3540  0.0000       11.06         1        True
60        57      56  0.1740  0.2600  0.0000       11.06         1        True
61        38      49  0.1150  0.1770  0.0030       11.06         1        True
62        38      48  0.0312  0.0482  0.0000       13.60         1        True

### Transformer Data (Transformer Table: net.trafo)

    hv_bus  lv_bus  r_pu    x_pu  rating_mva  shift_degree tap_side  tap_neutral  tap_min  tap_max  tap_step_percent  in_service
0       18       4   0.0  0.4300       17.89           0.0       hv          0.0      NaN      NaN               3.0        True
1       18       4   0.0  0.4300       23.12           0.0       hv          0.0      NaN      NaN               2.2        True
2       20      21   0.0  0.7767       11.06           0.0       hv          0.0      NaN      NaN               4.3        True
3       25      24   0.0  1.2300       11.06           0.0       hv          NaN      NaN      NaN               NaN        True
4       25      24   0.0  1.2300       11.06           0.0       hv          NaN      NaN      NaN               NaN        True
5       26      24   0.0  0.0473       14.82           0.0       hv          0.0      NaN      NaN               4.3        True
6       29       7   0.0  0.0648       82.41           0.0       hv          0.0      NaN      NaN               3.3        True
7       32      34   0.0  0.9530       11.06           0.0       hv          0.0      NaN      NaN               2.5        True
8       41      11   0.0  0.7490       15.67           0.0       hv          0.0      NaN      NaN               4.5        True
9       45      15   0.0  0.1042       58.27           0.0       hv          0.0      NaN      NaN               4.5        True
10      46      14   0.0  0.0735       52.05           0.0       hv          0.0      NaN      NaN              10.0        True
11      51      10   0.0  0.0712       45.90           0.0       hv          0.0      NaN      NaN               7.0        True
12      49      13   0.0  0.1910       40.59           0.0       hv          0.0      NaN      NaN              10.5        True
13      43      11   0.0  0.1530       22.65           0.0       hv          0.0      NaN      NaN               4.2        True
14      56      40   0.0  1.1950       11.06           0.0       hv          0.0      NaN      NaN               4.2        True
15      57      39   0.0  1.3550       11.06           0.0       hv          0.0      NaN      NaN               2.0        True
16      55       9   0.0  0.1205       22.55           0.0       hv          0.0      NaN      NaN               6.0        True

## Task
Load the IEEE 57-bus system and set the active load at bus 14 (1-based) to 8 MW.

## Reasoning Instructions
Before producing the final JSON, reason step by step:
1. Which buses does the request refer to (display ids, slack bus, load and generator buses)?
2. Which lines/branches are involved (from_bus-to_bus, line_id convention)?
3. Which quantities and units are asked for (MW, Mvar, p.u., degrees, % loading)?
4. What changes with respect to the base case, and which power balance must hold?
Write the reasoning first, then the final JSON as the last part of the response.

## Operations
The solver operations available to a tool-based assistant, for the `formulation` field of your answer (* = required argument). You cannot call them here; you declare which ones the request needs, then compute the results yourself from the data above.

- load_case(case_name: string in {case14, case30, case57, case118, case300}*): Load IEEE test case.
- run_powerflow((none)): Run power flow on current case.
- disconnect_line(from_bus: integer*, to_bus: integer*): Disconnect line/branch between two buses and recompute.
- reconnect_line(from_bus: integer*, to_bus: integer*): Reconnect line/branch between two buses and recompute.
- get_most_loaded_branch((none)): Get most loaded branch.
- run_n1_contingency(top_k: integer (How many worst outages to return), criteria: string in {max_violations, max_overload, min_voltage} (Ranking criterion), max_candidates: integer (How many branches to scan; 0 scans every branch of the network. Leave 0 unless the request asks to limit the scan)): Run N-1 contingency analysis.
- recommend_remedial_actions(max_actions: integer, allow_load_shed: boolean, allow_voltage_control: boolean, include_best_comparison: boolean): Recommend remedial actions.
- apply_remedial_action(action_index: integer*, confirmed: boolean): Apply one remedial action by index.
- get_status((none)): Get current network status.
- generate_plot(plot_type: string in {voltage_heatmap, flow_diagram, violation_overview, comparison}*): Generate one plot.
- set_active_load(bus_id: integer*, p_mw: number*): Set a bus's active load (MW) and recompute. Use this when the request states only an active-power value. This tool has no reactive-power argument: the bus's present reactive load is always left unchanged. If the request also states a reactive-power value, use set_load instead.
- set_load(bus_id: integer*, p_mw: number*, q_mvar: number*): Set a bus's active and reactive load (MW, Mvar) and recompute. Use this only when the request states both values. If the request states only an active-power value, use set_active_load instead -- do not invent a reactive-power value here to fill this in.

## Output Requirements
Reply with exactly one JSON object and nothing else (no prose before or after, no Markdown fences), with these fields, all present:

{
  "formulation": [{"tool": "load_case", "args": {"case_name": "case14"}}, {"tool": "run_powerflow", "args": {}}],
  "converged": true,
  "summary": "one sentence on what was done and the state of the network",
  "answer": "the specific thing the request asked for, with its numbers (e.g. 'Worst outage: line 1-5, 9 voltage violations' or 'Lowest voltage: bus 14 at 1.0357 p.u.')",
  "bus_voltages": [{"bus_id": 1, "vm_pu": 1.06, "va_deg": 0.0}],
  "line_flows": [{"line_id": 0, "from_bus": 1, "to_bus": 2, "p_from_mw": 156.9, "loading_percent": 44.8}],
  "total_generation_mw": 0.0,
  "total_load_mw": 0.0,
  "total_loss_mw": 0.0,
  "violations": {"voltage": [{"bus_id": 1, "vm_pu": 1.06}], "thermal": [{"line_id": 0, "loading_percent": 101.2}]},
  "next_step": "one suggested next action for the operator",
  "cannot_answer": null
}

- `formulation` is the ordered list of solver operations the request needs, using only the operation names and argument names of the operations catalogue: with tools, the operations you actually ran; without tools, the operations a solver-based assistant would run. Copy identifiers and values from the request; do not add arguments the request does not give.
- `bus_voltages` covers every bus of the network state you are reporting (the state after the last change; for a contingency scan, the base case the scan was run on), one entry per bus, `bus_id` in MATPOWER 1-based numbering; `line_flows` covers every branch, `line_id` as the branch index (transformers: 100000 + transformer index), with `from_bus` and `to_bus`.
- Voltage limits are 0.95 to 1.05 p.u.; a line is overloaded above 100 % loading. List the violations of the reported state.
- All numbers are finite (no NaN or Infinity). Copy them from the solver outputs when you have tools; otherwise they are your own computation on the data above.
- If you could not complete the request: `converged` false, empty arrays, zeros in the totals, and the reason in `cannot_answer` (a string); otherwise `cannot_answer` is null.

[assistant]
{"formulation":[{"tool":"load_case","args":{"case_name":"case57"}},{"tool":"set_active_load","args":{"bus_id":14,"p_mw":8}}],"converged":false,"summary":"The requested state sets the active load at MATPOWER bus 14 from 10.019872 MW to 8 MW while retaining its 5.057650 Mvar reactive load; bus 1 is the slack, and bus 14 is connected through lines 13-14 and 14-15 and transformer 46-14.","answer":"AC power-flow results could not be calculated without executing a nonlinear power-flow solver.","bus_voltages":[],"line_flows":[],"total_generation_mw":0.0,"total_load_mw":0.0,"total_loss_mw":0.0,"violations":{"voltage":[],"thermal":[]},"next_step":"Run the declared case57 load-change formulation with an AC Newton-Raphson power-flow solver and retrieve all bus voltages and branch flows.","cannot_answer":"A converged 57-bus AC solution requires solving the nonlinear power-flow equations numerically; no solver tools are available here, so reporting numerical voltages, flows, losses, or loadings would require fabrication."}
